 # Fcc Ni oriented X=[1-10] Y=[11-2] Z=[111].
 CRYSTAL
 PRIMVEC
      2.50315801        0.00000000        0.00000000
      0.00000000        4.33559684        0.00000000
      0.00000000        0.00000000       12.26291972
 CONVVEC
      2.50315801        0.00000000        0.00000000
      0.00000000        4.33559684        0.00000000
      0.00000000        0.00000000       12.26291972
 PRIMCOORD
       12 1
28        0.00000000        0.00000000        0.00000000
28        0.00000000        2.89039790        4.08763991
28        0.00000000        1.44519895        2.04381995
28        1.25157900        3.61299737        2.04381995
28        1.25157900        0.72259947        4.08763991
28        1.25157900        2.16779842        0.00000000
28        0.00000000        0.00000000        6.13145986
28        0.00000000        2.89039790       10.21909976
28        0.00000000        1.44519895        8.17527981
28        1.25157900        3.61299737        8.17527981
28        1.25157900        0.72259947       10.21909976
28        1.25157900        2.16779842        6.13145986
